** sch_path: /foss/designs/EE437/Project/ee437-quantum-controller/Top_Level/Top_Dummy.sch
.subckt Top_Dummy VoutI LNA_S Vin LNA_D VoutQ LNA_En AMP_En Clk avdd agnd ibias_n_50u
*.PININFO Clk:I VoutQ:O LNA_D:I Vin:I LNA_S:I VoutI:O AMP_En:I LNA_En:I avdd:B agnd:B ibias_n_50u:B
* noconn Clk
* noconn avdd
* noconn agnd
* noconn LNA_D
* noconn Vin
* noconn LNA_S
* noconn VoutI
* noconn VoutQ
* noconn AMP_En
* noconn LNA_En
* noconn ibias_n_50u
.ends
.end
